Version 4
SHEET 1 880 680
WIRE 224 48 48 48
WIRE 448 48 368 48
WIRE 464 48 448 48
WIRE 48 80 48 48
WIRE 48 192 48 160
FLAG 48 192 0
FLAG 448 48 out
SYMBOL voltage 48 64 R0
WINDOW 3 -314 110 Left 2
WINDOW 123 0 0 Left 2
WINDOW 39 0 0 Left 2
SYMATTR Value PULSE(6 12 0 200u 200u 200u 800u)
SYMATTR InstName V1
SYMBOL Beginner_Lec_subckt 288 48 R0
SYMATTR InstName X1
TEXT -272 216 Left 2 !.tran 5ms
TEXT -232 8 Left 2 ;LTspice beginners - Hierarchy model
