Version 4
SHEET 1 1168 680
WIRE 0 64 -64 64
WIRE 16 64 0 64
WIRE 224 64 160 64
WIRE 240 64 224 64
WIRE 400 64 336 64
WIRE 416 64 400 64
WIRE -64 96 -64 64
WIRE 160 96 160 64
WIRE 336 96 336 64
WIRE -64 224 -64 176
WIRE 160 224 160 176
WIRE 336 224 336 176
FLAG 336 224 0
FLAG 400 64 MC
FLAG -64 224 0
FLAG 0 64 Gauss
FLAG 160 224 0
FLAG 224 64 Flat
SYMBOL voltage 336 80 R0
WINDOW 123 0 0 Left 2
WINDOW 39 0 0 Left 2
SYMATTR InstName V3
SYMATTR Value {mc(10,tol)}
SYMBOL voltage -64 80 R0
WINDOW 123 0 0 Left 2
WINDOW 39 0 0 Left 2
SYMATTR InstName V1
SYMATTR Value {gauss(5)}
SYMBOL voltage 160 80 R0
WINDOW 123 0 0 Left 2
WINDOW 39 0 0 Left 2
SYMATTR InstName V2
SYMATTR Value {flat(5)}
TEXT -96 -48 Left 2 !.param tol=0.05
TEXT -96 -16 Left 2 !.step param x 1 100 1 ; dummy variable to make a "for loop"
TEXT -80 -128 Left 2 ;LTspice Beginner: Probability\nYe Zhao, EEsanity 2019
TEXT 600 64 Left 2 !.meas V1 AVG V(Gauss)
TEXT 608 16 Left 2 !.tran 10us
TEXT 600 112 Left 2 !.meas V2 AVG V(Flat)
TEXT 600 160 Left 2 !.meas V3 AVG V(MC)
